10

  O   -3.949939923  -0.000143450  -3.815896908
  C   -3.800618306   0.003771500  -5.025811592
  C   -2.413746868   0.013928662  -5.628840849
  C   -5.004091973  -0.001515653  -5.942215119
  H   -1.881038094   0.891330448  -5.265472224
  H   -1.870078249  -0.858483324  -5.269712302
  H   -2.420677721   0.016520534  -6.714123140
  H   -5.616269855   0.870128273  -5.717411468
  H   -5.605371398  -0.881767955  -5.721583165
  H   -4.740047227   0.002639189  -6.994882525
