8

 Br    0.430759046  -0.000115215  -0.107945607
  H    0.017750410  -0.000013811   1.259967353
  O   -0.257020059   0.000182833   3.141151173
  H   -1.048680694  -0.000040312   3.684018874
  C    0.880527259   0.000025604   3.997486173
  H    1.753839233   0.000098530   3.353020187
  H    0.913549580   0.888915397   4.626706548
  H    0.913509357  -0.889046121   4.626450420
