11

  H    0.855171335  -0.000008119  -0.588786261
  O    0.271546070   0.000016357   0.175592508
  C    1.084050448   0.000001807   1.335251990
  H    0.417831608  -0.000002486   2.192984764
  H    1.718489566  -0.886312946   1.398035525
  H    1.718498554   0.886309236   1.398050411
  F    1.125857154   0.000004199  -2.561576197
  C   -0.184637333  -0.000001453  -3.025415783
  H   -0.166928581  -0.000001809  -4.110978064
  H   -0.686098066  -0.888580071  -2.654737004
  H   -0.686105119   0.888573338  -2.654737429
