10

  O   -3.785037609   0.000866982  -3.641619578
  C   -4.942504639   0.030472744  -3.262526217
  C   -5.268278522   0.030763181  -1.784860352
  C   -6.074813789   0.067570401  -4.266102134
  H   -5.949425709   0.944115224  -4.899332013
  H   -5.998004094  -0.807301293  -4.909325767
  H   -7.056301133   0.092128453  -3.803511947
  H   -6.334373655   0.058880289  -1.583055978
  H   -4.834292873  -0.858956293  -1.331613097
  H   -4.786131398   0.889881839  -1.321375004
