12

  F   -2.268328468  -1.958202889  -0.323025092
  F   -2.703690585   0.725550383  -0.253119040
  C    0.039970416  -1.620649062   0.000627529
  C   -1.246714568  -1.122331457  -0.158188956
  C   -1.468960632   0.248281616  -0.123448223
  C   -0.404843176   1.120110725   0.068321788
  C    0.882869160   0.622303553   0.223239994
  C    1.104164281  -0.748842052   0.192245986
  F   -0.620157741   2.430732722   0.113060107
  F    1.901232288   1.456424170   0.399377483
  F    0.250821528  -2.933836485  -0.010169125
  F    2.333223855  -1.227390582   0.354782679
