9

  C    0.081577546  -0.079576968  -0.122248507
 Br    1.796548323   0.397128500   0.629679005
  H    0.013255521  -1.160016154  -0.156779811
  H   -0.692267287   0.331402893   0.514488442
  H    0.018180933   0.339827727  -1.118895585
  O    4.855012535   0.847915867   1.349033039
  C    5.324414120   0.241999249   0.411201439
  H    6.411534668   0.146524254   0.268747940
  H    4.686070972  -0.241736004  -0.342833789
