12

  C    1.037288000   0.000539000  -0.582102000
  C   -0.176487000  -0.000271000   0.102715000
  C   -0.183174000  -0.000518000   1.498133000
  C    1.019880000   0.000040000   2.205172000
  C    2.228616000   0.000848000   1.511505000
  C    2.241753000   0.001096000   0.118273000
  I   -2.004073000  -0.001696000   2.534377000
  H    1.013157000  -0.000135000   3.286244000
  H    3.159115000   0.001279000   2.063225000
  H    3.181398000   0.001715000  -0.416415000
  H    1.038283000   0.000729000  -1.663869000
  H   -1.109304000  -0.000688000  -0.443732000
