8

  I    0.494360760   0.000136728  -0.299186147
  H   -0.026818451   0.000009824   1.227779722
  O   -0.304026274  -0.000209906   3.240541651
  H   -1.061671708   0.000034129   3.830196635
  C    0.877605168  -0.000029640   4.033497508
  H    1.715615561  -0.000131053   3.343283509
  H    0.946841112   0.888893429   4.660263367
  H    0.946888093  -0.888723395   4.660583580
