8

  F    0.324738231  -0.000096172   0.367513243
  H    0.106356599  -0.000015606   1.274535595
  O   -0.167235591   0.000145557   2.943064329
  H   -1.010969151  -0.000039884   3.399033154
  C    0.881995330   0.000018821   3.906791538
  H    1.813385323   0.000059838   3.351066264
  H    0.849525704   0.889168810   4.534616489
  H    0.849495114  -0.889261044   4.534430809
