13

  N   -4.582592278  -0.001974697   4.004623405
  C   -5.432248278   1.033095303   3.443517405
  C   -5.202064278  -1.306090697   3.850638405
  C   -4.310611278   0.268567303   5.404935405
  H   -5.229215278   0.283653303   6.011064405
  H   -3.647037278  -0.497334697   5.803030405
  H   -3.817378278   1.234370303   5.501577405
  H   -6.408881278   1.087511303   3.948188405
  H   -4.940827278   2.000098303   3.537088405
  H   -5.600716278   0.834533303   2.386353405
  H   -6.166829278  -1.372211697   4.376310405
  H   -5.370060278  -1.508608697   2.794164405
  H   -4.539891278  -2.074436697   4.246253405
